<?xml version="1.0" encoding="UTF-8"?>

<!-- generated on 2022-04-11 13:40:29 by Eclipse SUMO netedit Version 1.10.0
<configuration xmlns:xsi="http://www.w3.org/2001/XMLSchema-instance" xsi:noNamespaceSchemaLocation="http://sumo.dlr.de/xsd/netconvertConfiguration.xsd">

    <input>
        <sumo-net-file value="C:\Users\jagge\OneDrive%20-%20Loughborough%20University\FYP%20-%20SUMO\Network\all.net.xml"/>
    </input>

    <output>
        <output-file value="C:\Users\jagge\OneDrive%20-%20Loughborough%20University\FYP%20-%20SUMO\Network\base.net.xml"/>
    </output>

    <processing>
        <geometry.min-radius.fix.railways value="false"/>
        <geometry.max-grade.fix value="false"/>
        <offset.disable-normalization value="true"/>
        <lefthand value="true"/>
    </processing>

    <junctions>
        <no-turnarounds value="true"/>
        <junctions.corner-detail value="5"/>
        <junctions.limit-turn-speed value="5.5"/>
        <rectangular-lane-cut value="false"/>
    </junctions>

    <pedestrian>
        <walkingareas value="false"/>
    </pedestrian>

    <netedit>
        <route-files value="C:\Users\jagge\OneDrive%20-%20Loughborough%20University\FYP%20-%20SUMO\Network\demand.rou.xml"/>
    </netedit>

    <report>
        <aggregate-warnings value="5"/>
    </report>

</configuration>
-->

<routes xmlns:xsi="http://www.w3.org/2001/XMLSchema-instance" xsi:noNamespaceSchemaLocation="http://sumo.dlr.de/xsd/routes_file.xsd">
    <vType id="DEFAULT_VEHTYPE" vClass="passenger"/>
    <vType id="bus" maxSpeed="60.00" vClass="bus" accel="2.5" decel="4"/>
    <vType id="lorry" maxSpeed="56.0" vClass="truck" accel="2.2" decel="3.6"/>
    <vType id="motorcycle" maxSpeed="70.00" vClass="motorcycle" accel="2.8" decel="5"/>
    <vType id="passenger" maxSpeed="70.00" accel="2.6" decel="4.5"/>
</routes>