<?xml version="1.0" encoding="UTF-8"?>

<!-- generated on 2022-04-15 15:32:27 by Eclipse SUMO netedit Version 1.10.0
<configuration xmlns:xsi="http://www.w3.org/2001/XMLSchema-instance" xsi:noNamespaceSchemaLocation="http://sumo.dlr.de/xsd/netconvertConfiguration.xsd">

    <input>
        <sumo-net-file value="C:\Program%20Files%20(x86)\Eclipse\Sumo\tools\contributed\traci4matlab-master\M25\SUMO\final.net.xml"/>
    </input>

    <output>
        <output-file value="C:\Program%20Files%20(x86)\Eclipse\Sumo\tools\contributed\traci4matlab-master\M25\SUMO\final.net.xml"/>
    </output>

    <processing>
        <geometry.min-radius.fix.railways value="false"/>
        <geometry.max-grade.fix value="false"/>
        <offset.disable-normalization value="true"/>
        <lefthand value="true"/>
    </processing>

    <junctions>
        <no-turnarounds value="true"/>
        <junctions.corner-detail value="5"/>
        <junctions.limit-turn-speed value="5.5"/>
        <rectangular-lane-cut value="false"/>
    </junctions>

    <pedestrian>
        <walkingareas value="false"/>
    </pedestrian>

    <report>
        <aggregate-warnings value="5"/>
    </report>

</configuration>
-->

<net version="1.9" junctionCornerDetail="5" lefthand="true" limitTurnSpeed="5.50" xmlns:xsi="http://www.w3.org/2001/XMLSchema-instance" xsi:noNamespaceSchemaLocation="http://sumo.dlr.de/xsd/net_file.xsd">

    <location netOffset="0.00,0.00" convBoundary="-8232.06,-17586.20,12250.45,1510.30" origBoundary="-10000000000.00,-10000000000.00,10000000000.00,10000000000.00" projParameter="!"/>

    <edge id=":OFF_A1M_AC_0" function="internal">
        <lane id=":OFF_A1M_AC_0_0" index="0" speed="8.26" length="6.08" shape="-113.28,-44.02 -115.06,-43.70 -116.36,-43.58 -117.56,-43.87 -119.05,-44.77"/>
        <lane id=":OFF_A1M_AC_0_1" index="1" speed="9.29" length="7.80" shape="-112.78,-40.86 -114.88,-40.92 -116.16,-41.78 -117.32,-43.16 -119.05,-44.77"/>
    </edge>
    <edge id=":OFF_A1M_AC_2" function="internal">
        <lane id=":OFF_A1M_AC_2_0" index="0" speed="70.00" length="4.39" shape="-112.78,-40.86 -114.14,-40.45 -114.97,-39.86 -115.77,-39.20 -117.08,-38.55"/>
        <lane id=":OFF_A1M_AC_2_1" index="1" speed="70.00" length="4.39" shape="-112.28,-37.70 -113.48,-37.32 -114.19,-36.75 -114.88,-36.12 -116.02,-35.53"/>
        <lane id=":OFF_A1M_AC_2_2" index="2" speed="70.00" length="4.39" shape="-111.78,-34.54 -112.81,-34.18 -113.40,-33.65 -113.98,-33.05 -114.97,-32.51"/>
    </edge>
    <edge id=":OFF_A1M_C_0" function="internal">
        <lane id=":OFF_A1M_C_0_0" index="0" speed="8.26" length="6.07" shape="114.88,43.77 116.61,43.64 117.81,43.93 118.90,44.62 120.34,45.71"/>
        <lane id=":OFF_A1M_C_0_1" index="1" speed="9.62" length="8.39" shape="114.38,40.61 116.50,40.82 117.62,42.06 118.62,43.85 120.34,45.71"/>
    </edge>
    <edge id=":OFF_A1M_C_2" function="internal">
        <lane id=":OFF_A1M_C_2_0" index="0" speed="70.00" length="7.93" shape="114.38,40.61 116.52,40.55 117.98,41.00 119.44,41.57 121.61,41.85"/>
        <lane id=":OFF_A1M_C_2_1" index="1" speed="70.00" length="7.93" shape="113.88,37.45 116.17,37.37 117.74,37.81 119.31,38.37 121.64,38.65"/>
        <lane id=":OFF_A1M_C_2_2" index="2" speed="70.00" length="7.93" shape="113.38,34.28 115.83,34.19 117.50,34.61 119.18,35.17 121.66,35.45"/>
    </edge>
    <edge id=":OFF_M11_AC_0" function="internal">
        <lane id=":OFF_M11_AC_0_0" index="0" speed="27.91" length="73.76" shape="8884.72,11.09 8876.99,13.36 8862.22,13.74 8840.40,12.24 8811.54,8.84"/>
        <lane id=":OFF_M11_AC_0_1" index="1" speed="28.25" length="75.58" shape="8886.66,13.64 8879.76,15.02 8864.94,14.68 8842.21,12.62 8811.54,8.84"/>
    </edge>
    <edge id=":OFF_M11_AC_2" function="internal">
        <lane id=":OFF_M11_AC_2_0" index="0" speed="32.48" length="78.42" shape="8886.66,13.64 8870.29,18.56 8848.65,17.54 8827.17,14.22 8811.30,12.23"/>
        <lane id=":OFF_M11_AC_2_1" index="1" speed="32.89" length="78.42" shape="8888.60,16.18 8871.92,21.21 8849.60,20.41 8827.45,17.31 8811.27,15.43"/>
        <lane id=":OFF_M11_AC_2_2" index="2" speed="33.29" length="78.42" shape="8890.55,18.72 8873.56,23.85 8850.56,23.28 8827.72,20.41 8811.24,18.63"/>
    </edge>
    <edge id=":OFF_M11_C_0" function="internal">
        <lane id=":OFF_M11_C_0_0" index="0" speed="11.63" length="12.47" shape="9115.28,-11.09 9119.11,-13.89 9122.17,-15.84 9124.46,-16.95 9126.00,-17.21"/>
        <lane id=":OFF_M11_C_0_1" index="1" speed="12.09" length="13.50" shape="9113.34,-13.64 9116.33,-15.54 9119.44,-16.77 9122.66,-17.33 9126.00,-17.21"/>
    </edge>
    <edge id=":OFF_M11_C_2" function="internal">
        <lane id=":OFF_M11_C_2_0" index="0" speed="11.91" length="7.67" shape="9113.34,-13.64 9115.53,-15.47 9116.76,-17.05 9117.52,-18.94 9118.29,-21.73"/>
        <lane id=":OFF_M11_C_2_1" index="1" speed="10.59" length="7.67" shape="9111.40,-16.18 9113.10,-17.63 9114.04,-18.87 9114.61,-20.37 9115.20,-22.57"/>
        <lane id=":OFF_M11_C_2_2" index="2" speed="9.08" length="7.67" shape="9109.45,-18.72 9110.67,-19.78 9111.32,-20.70 9111.70,-21.81 9112.11,-23.41"/>
    </edge>
    <edge id=":OFF_M1_AC_0" function="internal">
        <lane id=":OFF_M1_AC_0_0" index="0" speed="29.32" length="81.44" shape="-4070.84,1208.38 -4077.09,1202.61 -4085.90,1189.00 -4097.27,1167.55 -4111.21,1138.25"/>
        <lane id=":OFF_M1_AC_0_1" index="1" speed="29.65" length="83.29" shape="-4071.96,1211.38 -4077.01,1205.84 -4085.24,1191.81 -4096.63,1169.28 -4111.21,1138.25"/>
    </edge>
    <edge id=":OFF_M1_AC_2" function="internal">
        <lane id=":OFF_M1_AC_2_0" index="0" speed="33.61" length="86.11" shape="-4071.96,1211.38 -4085.38,1199.07 -4097.21,1177.81 -4106.97,1155.45 -4114.20,1139.83"/>
        <lane id=":OFF_M1_AC_2_1" index="1" speed="34.00" length="86.11" shape="-4073.07,1214.38 -4086.75,1201.85 -4099.13,1180.13 -4109.46,1157.31 -4116.94,1141.48"/>
        <lane id=":OFF_M1_AC_2_2" index="2" speed="34.38" length="86.11" shape="-4074.19,1217.38 -4088.12,1204.64 -4101.06,1182.46 -4111.94,1159.17 -4119.68,1143.13"/>
    </edge>
    <edge id=":OFF_M1_C_0" function="internal">
        <lane id=":OFF_M1_C_0_0" index="0" speed="11.64" length="12.48" shape="-3929.16,1391.62 -3924.75,1393.37 -3921.47,1394.92 -3919.30,1396.27 -3918.26,1397.42"/>
        <lane id=":OFF_M1_C_0_1" index="1" speed="12.09" length="13.50" shape="-3928.04,1388.62 -3924.83,1390.14 -3922.13,1392.11 -3919.94,1394.54 -3918.26,1397.42"/>
    </edge>
    <edge id=":OFF_M1_C_2" function="internal">
        <lane id=":OFF_M1_C_2_0" index="0" speed="11.42" length="7.51" shape="-3928.04,1388.62 -3925.34,1389.50 -3923.35,1389.71 -3921.36,1389.33 -3918.64,1388.42"/>
        <lane id=":OFF_M1_C_2_1" index="1" speed="10.08" length="7.51" shape="-3926.93,1385.62 -3924.84,1386.28 -3923.31,1386.42 -3921.78,1386.10 -3919.68,1385.39"/>
        <lane id=":OFF_M1_C_2_2" index="2" speed="8.53" length="7.51" shape="-3925.81,1382.62 -3924.34,1383.07 -3923.27,1383.14 -3922.19,1382.88 -3920.72,1382.37"/>
    </edge>
    <edge id=":OFF_M20_AC_0" function="internal">
        <lane id=":OFF_M20_AC_0_0" index="0" speed="11.61" length="12.45" shape="10976.93,-12886.63 10978.49,-12882.17 10979.46,-12878.68 10979.86,-12876.17 10979.66,-12874.62"/>
        <lane id=":OFF_M20_AC_0_1" index="1" speed="12.06" length="13.48" shape="10979.93,-12887.75 10980.88,-12884.34 10981.15,-12881.02 10980.75,-12877.78 10979.66,-12874.62"/>
    </edge>
    <edge id=":OFF_M20_AC_2" function="internal">
        <lane id=":OFF_M20_AC_2_0" index="0" speed="70.00" length="11.31" shape="10979.93,-12887.75 10981.22,-12884.53 10982.28,-12882.40 10983.47,-12880.33 10985.16,-12877.28"/>
        <lane id=":OFF_M20_AC_2_1" index="1" speed="70.00" length="11.31" shape="10982.92,-12888.87 10984.18,-12885.77 10985.20,-12883.72 10986.36,-12881.72 10987.99,-12878.78"/>
        <lane id=":OFF_M20_AC_2_2" index="2" speed="70.00" length="11.31" shape="10985.92,-12889.99 10987.13,-12887.00 10988.13,-12885.03 10989.24,-12883.11 10990.81,-12880.28"/>
    </edge>
    <edge id=":OFF_M20_C_0" function="internal">
        <lane id=":OFF_M20_C_0_0" index="0" speed="11.92" length="13.16" shape="11023.07,-13113.37 11021.53,-13117.88 11020.62,-13121.50 11020.33,-13124.25 11020.67,-13126.11"/>
        <lane id=":OFF_M20_C_0_1" index="1" speed="12.39" length="14.24" shape="11020.07,-13112.25 11019.14,-13115.71 11018.93,-13119.17 11019.44,-13122.64 11020.67,-13126.11"/>
    </edge>
    <edge id=":OFF_M20_C_2" function="internal">
        <lane id=":OFF_M20_C_2_0" index="0" speed="70.00" length="15.13" shape="11020.07,-13112.25 11018.68,-13116.38 11017.99,-13119.28 11017.48,-13122.24 11016.59,-13126.52"/>
        <lane id=":OFF_M20_C_2_1" index="1" speed="70.00" length="15.13" shape="11017.08,-13111.13 11015.64,-13115.37 11014.93,-13118.35 11014.39,-13121.39 11013.47,-13125.79"/>
        <lane id=":OFF_M20_C_2_2" index="2" speed="70.00" length="15.13" shape="11014.08,-13110.01 11012.60,-13114.36 11011.86,-13117.43 11011.30,-13120.55 11010.36,-13125.06"/>
    </edge>
    <edge id=":OFF_M23_AC_0" function="internal">
        <lane id=":OFF_M23_AC_0_0" index="0" speed="13.09" length="15.93" shape="3108.74,-17260.70 3113.58,-17261.47 3117.79,-17261.53 3121.34,-17260.90 3124.26,-17259.57"/>
        <lane id=":OFF_M23_AC_0_1" index="1" speed="13.58" length="17.16" shape="3108.06,-17263.83 3111.78,-17264.15 3115.72,-17263.54 3119.88,-17262.02 3124.26,-17259.57"/>
    </edge>
    <edge id=":OFF_M23_AC_2" function="internal">
        <lane id=":OFF_M23_AC_2_0" index="0" speed="70.00" length="18.31" shape="3108.06,-17263.83 3113.14,-17264.57 3116.69,-17264.40 3120.26,-17263.82 3125.45,-17263.36"/>
        <lane id=":OFF_M23_AC_2_1" index="1" speed="70.00" length="18.31" shape="3107.39,-17266.96 3112.70,-17267.75 3116.40,-17267.60 3120.14,-17267.03 3125.57,-17266.55"/>
        <lane id=":OFF_M23_AC_2_2" index="2" speed="70.00" length="18.31" shape="3106.71,-17270.09 3112.26,-17270.93 3116.12,-17270.80 3120.03,-17270.23 3125.69,-17269.75"/>
    </edge>
    <edge id=":OFF_M23_C_0" function="internal">
        <lane id=":OFF_M23_C_0_0" index="0" speed="11.62" length="12.46" shape="2891.26,-17339.30 2886.62,-17338.40 2883.02,-17337.94 2880.47,-17337.92 2878.98,-17338.33"/>
        <lane id=":OFF_M23_C_0_1" index="1" speed="12.07" length="13.49" shape="2891.94,-17336.17 2888.42,-17335.72 2885.09,-17335.93 2881.94,-17336.80 2878.98,-17338.33"/>
    </edge>
    <edge id=":OFF_M23_C_2" function="internal">
        <lane id=":OFF_M23_C_2_0" index="0" speed="70.00" length="10.21" shape="2891.94,-17336.17 2888.79,-17335.36 2886.73,-17334.51 2884.75,-17333.43 2881.86,-17331.89"/>
        <lane id=":OFF_M23_C_2_1" index="1" speed="70.00" length="10.21" shape="2892.61,-17333.04 2889.70,-17332.28 2887.79,-17331.48 2885.96,-17330.46 2883.28,-17329.03"/>
        <lane id=":OFF_M23_C_2_2" index="2" speed="70.00" length="10.21" shape="2893.29,-17329.91 2890.60,-17329.20 2888.85,-17328.45 2887.17,-17327.49 2884.70,-17326.16"/>
    </edge>
    <edge id=":OFF_M26_AC_0" function="internal">
        <lane id=":OFF_M26_AC_0_0" index="0" speed="27.60" length="72.62" shape="10037.64,-16890.36 10041.61,-16883.46 10045.36,-16869.39 10048.87,-16848.16 10052.16,-16819.77"/>
        <lane id=":OFF_M26_AC_0_1" index="1" speed="27.94" length="74.45" shape="10039.66,-16892.84 10042.58,-16886.54 10045.64,-16872.26 10048.83,-16850.00 10052.16,-16819.77"/>
    </edge>
    <edge id=":OFF_M26_AC_2" function="internal">
        <lane id=":OFF_M26_AC_2_0" index="0" speed="32.18" length="77.30" shape="10039.66,-16892.84 10048.22,-16878.25 10052.16,-16857.33 10053.81,-16836.05 10055.52,-16820.32"/>
        <lane id=":OFF_M26_AC_2_1" index="1" speed="32.58" length="77.30" shape="10041.68,-16895.33 10050.41,-16880.45 10054.73,-16858.93 10056.76,-16837.04 10058.64,-16821.03"/>
        <lane id=":OFF_M26_AC_2_2" index="2" speed="32.99" length="77.30" shape="10043.70,-16897.81 10052.60,-16882.66 10057.30,-16860.53 10059.71,-16838.02 10061.76,-16821.74"/>
    </edge>
    <edge id=":OFF_M26_C_0" function="internal">
        <lane id=":OFF_M26_C_0_0" index="0" speed="11.57" length="12.41" shape="9962.36,-17109.64 9958.77,-17112.69 9956.17,-17115.20 9954.57,-17117.17 9953.96,-17118.60"/>
        <lane id=":OFF_M26_C_0_1" index="1" speed="12.03" length="13.45" shape="9960.34,-17107.16 9957.80,-17109.61 9955.89,-17112.34 9954.61,-17115.33 9953.96,-17118.60"/>
    </edge>
    <edge id=":OFF_M26_C_2" function="internal">
        <lane id=":OFF_M26_C_2_0" index="0" speed="12.06" length="7.71" shape="9960.34,-17107.16 9958.04,-17108.86 9956.22,-17109.69 9954.21,-17109.99 9951.32,-17110.11"/>
        <lane id=":OFF_M26_C_2_1" index="1" speed="10.74" length="7.71" shape="9958.32,-17104.67 9956.51,-17106.00 9955.07,-17106.62 9953.47,-17106.83 9951.19,-17106.91"/>
        <lane id=":OFF_M26_C_2_2" index="2" speed="9.24" length="7.71" shape="9956.30,-17102.19 9954.97,-17103.14 9953.91,-17103.56 9952.74,-17103.67 9951.07,-17103.72"/>
    </edge>
    <edge id=":OFF_M2_AC_0" function="internal">
        <lane id=":OFF_M2_AC_0_0" index="0" speed="14.75" length="20.32" shape="11948.69,-10896.53 11948.72,-10891.40 11947.77,-10886.53 11945.82,-10881.93 11942.88,-10877.60"/>
        <lane id=":OFF_M2_AC_0_1" index="1" speed="15.23" length="21.69" shape="11951.87,-10896.85 11951.59,-10892.89 11950.00,-10888.36 11947.09,-10883.27 11942.88,-10877.60"/>
    </edge>
    <edge id=":OFF_M2_AC_2" function="internal">
        <lane id=":OFF_M2_AC_2_0" index="0" speed="34.59" length="23.19" shape="11951.87,-10896.85 11951.86,-10890.48 11950.55,-10886.23 11948.50,-10882.04 11946.28,-10875.86"/>
        <lane id=":OFF_M2_AC_2_1" index="1" speed="35.47" length="23.19" shape="11955.06,-10897.17 11955.07,-10890.46 11953.76,-10885.97 11951.68,-10881.54 11949.37,-10875.02"/>
        <lane id=":OFF_M2_AC_2_2" index="2" speed="36.34" length="23.19" shape="11958.24,-10897.49 11958.28,-10890.44 11956.97,-10885.71 11954.85,-10881.04 11952.46,-10874.19"/>
    </edge>
    <edge id=":OFF_M2_C_0" function="internal">
        <lane id=":OFF_M2_C_0_0" index="0" speed="11.63" length="12.47" shape="12051.31,-11103.47 12050.94,-11108.19 12050.88,-11111.82 12051.14,-11114.35 12051.72,-11115.80"/>
        <lane id=":OFF_M2_C_0_1" index="1" speed="12.08" length="13.49" shape="12048.13,-11103.15 12048.07,-11106.70 12048.66,-11109.99 12049.87,-11113.02 12051.72,-11115.80"/>
    </edge>
    <edge id=":OFF_M2_C_2" function="internal">
        <lane id=":OFF_M2_C_2_0" index="0" speed="21.76" length="9.23" shape="12048.13,-11103.15 12047.67,-11106.18 12046.98,-11108.18 12045.94,-11110.08 12044.41,-11112.79"/>
        <lane id=":OFF_M2_C_2_1" index="1" speed="20.45" length="9.23" shape="12044.94,-11102.83 12044.52,-11105.50 12043.89,-11107.25 12042.94,-11108.91 12041.58,-11111.30"/>
        <lane id=":OFF_M2_C_2_2" index="2" speed="19.06" length="9.23" shape="12041.76,-11102.51 12041.38,-11104.82 12040.80,-11106.32 12039.94,-11107.75 12038.75,-11109.81"/>
    </edge>
    <edge id=":OFF_M3_AC_0" function="internal">
        <lane id=":OFF_M3_AC_0_0" index="0" speed="29.97" length="85.84" shape="-7903.50,-11863.84 -7897.04,-11869.70 -7882.03,-11877.72 -7858.45,-11887.89 -7826.32,-11900.23"/>
        <lane id=":OFF_M3_AC_0_1" index="1" speed="30.30" length="87.72" shape="-7906.41,-11865.16 -7900.26,-11869.86 -7884.87,-11877.27 -7860.22,-11887.39 -7826.32,-11900.23"/>
    </edge>
    <edge id=":OFF_M3_AC_2" function="internal">
        <lane id=":OFF_M3_AC_2_0" index="0" speed="34.06" length="90.55" shape="-7906.41,-11865.16 -7892.50,-11877.87 -7868.96,-11888.57 -7844.47,-11897.12 -7827.66,-11903.33"/>
        <lane id=":OFF_M3_AC_2_1" index="1" speed="34.44" length="90.55" shape="-7909.32,-11866.49 -7895.18,-11879.44 -7871.13,-11890.67 -7846.12,-11899.74 -7829.08,-11906.19"/>
        <lane id=":OFF_M3_AC_2_2" index="2" speed="34.82" length="90.55" shape="-7912.24,-11867.82 -7897.85,-11881.00 -7873.30,-11892.77 -7847.77,-11902.37 -7830.50,-11909.06"/>
    </edge>
    <edge id=":OFF_M3_C_0" function="internal">
        <lane id=":OFF_M3_C_0_0" index="0" speed="11.56" length="12.40" shape="-8096.50,-11736.16 -8098.54,-11731.93 -8100.32,-11728.79 -8101.82,-11726.74 -8103.05,-11725.79"/>
        <lane id=":OFF_M3_C_0_1" index="1" speed="12.01" length="13.44" shape="-8093.59,-11734.84 -8095.32,-11731.77 -8097.48,-11729.23 -8100.05,-11727.24 -8103.05,-11725.79"/>
    </edge>
    <edge id=":OFF_M3_C_2" function="internal">
        <lane id=":OFF_M3_C_2_0" index="0" speed="11.31" length="7.45" shape="-8093.59,-11734.84 -8094.65,-11732.21 -8095.01,-11730.26 -8094.78,-11728.25 -8094.06,-11725.48"/>
        <lane id=":OFF_M3_C_2_1" index="1" speed="9.96" length="7.45" shape="-8090.68,-11733.51 -8091.48,-11731.49 -8091.74,-11729.99 -8091.54,-11728.45 -8090.97,-11726.32"/>
        <lane id=":OFF_M3_C_2_2" index="2" speed="8.40" length="7.45" shape="-8087.76,-11732.18 -8088.31,-11730.77 -8088.46,-11729.72 -8088.29,-11728.65 -8087.89,-11727.17"/>
    </edge>
    <edge id=":OFF_M40_AC_0" function="internal">
        <lane id=":OFF_M40_AC_0_0" index="0" speed="17.83" length="29.87" shape="-7947.10,-5403.07 -7946.64,-5408.67 -7944.39,-5414.94 -7940.35,-5421.87 -7934.53,-5429.45"/>
        <lane id=":OFF_M40_AC_0_1" index="1" speed="18.28" length="31.41" shape="-7950.29,-5402.80 -7949.53,-5407.23 -7946.65,-5413.15 -7941.65,-5420.56 -7934.53,-5429.45"/>
    </edge>
    <edge id=":OFF_M40_AC_2" function="internal">
        <lane id=":OFF_M40_AC_2_0" index="0" speed="27.67" length="33.64" shape="-7950.29,-5402.80 -7949.70,-5411.91 -7946.69,-5417.78 -7942.31,-5423.31 -7937.62,-5431.38"/>
        <lane id=":OFF_M40_AC_2_1" index="1" speed="28.31" length="33.64" shape="-7953.48,-5402.54 -7952.87,-5412.21 -7949.77,-5418.57 -7945.30,-5424.46 -7940.55,-5432.67"/>
        <lane id=":OFF_M40_AC_2_2" index="2" speed="28.95" length="33.64" shape="-7956.67,-5402.28 -7956.05,-5412.50 -7952.86,-5419.37 -7948.28,-5425.60 -7943.49,-5433.95"/>
    </edge>
    <edge id=":OFF_M40_C_0" function="internal">
        <lane id=":OFF_M40_C_0_0" index="0" speed="11.63" length="12.47" shape="-8052.90,-5196.93 -8052.61,-5192.21 -8052.62,-5188.58 -8052.93,-5186.05 -8053.53,-5184.61"/>
        <lane id=":OFF_M40_C_0_1" index="1" speed="12.08" length="13.50" shape="-8049.71,-5197.20 -8049.72,-5193.65 -8050.36,-5190.37 -8051.63,-5187.36 -8053.53,-5184.61"/>
    </edge>
    <edge id=":OFF_M40_C_2" function="internal">
        <lane id=":OFF_M40_C_2_0" index="0" speed="16.92" length="8.74" shape="-8049.71,-5197.20 -8049.31,-5194.23 -8048.64,-5192.28 -8047.55,-5190.45 -8045.93,-5187.89"/>
        <lane id=":OFF_M40_C_2_1" index="1" speed="15.66" length="8.74" shape="-8046.52,-5197.46 -8046.16,-5194.93 -8045.55,-5193.27 -8044.59,-5191.73 -8043.19,-5189.54"/>
        <lane id=":OFF_M40_C_2_2" index="2" speed="14.30" length="8.74" shape="-8043.33,-5197.72 -8043.02,-5195.63 -8042.47,-5194.27 -8041.63,-5193.00 -8040.45,-5191.20"/>
    </edge>
    <edge id=":OFF_M4_AC_0" function="internal">
        <lane id=":OFF_M4_AC_0_0" index="0" speed="9.98" length="8.39" shape="-6931.88,-7892.08 -6931.86,-7894.59 -6931.85,-7896.43 -6931.36,-7898.03 -6929.84,-7899.84"/>
        <lane id=":OFF_M4_AC_0_1" index="1" speed="10.64" length="9.58" shape="-6935.08,-7892.30 -6934.59,-7894.97 -6933.59,-7896.61 -6932.03,-7897.98 -6929.84,-7899.84"/>
    </edge>
    <edge id=":OFF_M4_AC_2" function="internal">
        <lane id=":OFF_M4_AC_2_0" index="0" speed="20.83" length="5.16" shape="-6935.08,-7892.30 -6935.23,-7894.04 -6935.83,-7895.14 -6936.63,-7896.22 -6937.36,-7897.90"/>
        <lane id=":OFF_M4_AC_2_1" index="1" speed="19.04" length="5.16" shape="-6938.27,-7892.53 -6938.44,-7893.95 -6939.04,-7894.82 -6939.79,-7895.68 -6940.44,-7897.05"/>
        <lane id=":OFF_M4_AC_2_2" index="2" speed="17.14" length="5.16" shape="-6941.46,-7892.75 -6941.65,-7893.86 -6942.24,-7894.50 -6942.95,-7895.12 -6943.52,-7896.20"/>
    </edge>
    <edge id=":OFF_M4_C_0" function="internal">
        <lane id=":OFF_M4_C_0_0" index="0" speed="11.48" length="12.11" shape="-7068.32,-7697.75 -7069.14,-7694.42 -7070.82,-7692.45 -7073.14,-7690.95 -7075.85,-7689.00"/>
        <lane id=":OFF_M4_C_0_1" index="1" speed="12.55" length="14.56" shape="-7065.13,-7697.53 -7066.47,-7693.78 -7069.25,-7691.94 -7072.65,-7690.76 -7075.85,-7689.00"/>
    </edge>
    <edge id=":OFF_M4_C_2" function="internal">
        <lane id=":OFF_M4_C_2_0" index="0" speed="30.74" length="14.60" shape="-7065.13,-7697.53 -7066.14,-7693.92 -7068.12,-7691.93 -7070.50,-7690.05 -7072.74,-7686.73"/>
        <lane id=":OFF_M4_C_2_1" index="1" speed="31.85" length="14.60" shape="-7061.94,-7697.31 -7062.97,-7693.38 -7064.99,-7691.17 -7067.45,-7689.07 -7069.80,-7685.46"/>
        <lane id=":OFF_M4_C_2_2" index="2" speed="32.94" length="14.60" shape="-7058.75,-7697.10 -7059.81,-7692.85 -7061.86,-7690.41 -7064.39,-7688.08 -7066.87,-7684.19"/>
    </edge>
    <edge id=":ON_A1M_AC_0" function="internal">
        <lane id=":ON_A1M_AC_0_0" index="0" speed="8.15" length="5.91" shape="99.38,-79.37 98.28,-78.08 97.26,-77.44 96.04,-77.15 94.30,-76.90"/>
    </edge>
    <edge id=":ON_A1M_AC_1" function="internal">
        <lane id=":ON_A1M_AC_1_0" index="0" speed="70.00" length="4.32" shape="99.51,-72.95 98.10,-73.13 97.14,-73.49 96.19,-73.78 94.80,-73.74"/>
        <lane id=":ON_A1M_AC_1_1" index="1" speed="70.00" length="4.32" shape="99.48,-69.75 98.22,-69.93 97.38,-70.30 96.54,-70.59 95.30,-70.58"/>
        <lane id=":ON_A1M_AC_1_2" index="2" speed="70.00" length="4.32" shape="99.44,-66.55 98.35,-66.73 97.61,-67.10 96.89,-67.41 95.80,-67.42"/>
    </edge>
    <edge id=":ON_A1M_C_0" function="internal">
        <lane id=":ON_A1M_C_0_0" index="0" speed="8.39" length="6.29" shape="-100.45,80.84 -99.38,79.30 -98.54,78.25 -97.47,77.56 -95.72,77.13"/>
    </edge>
    <edge id=":ON_A1M_C_1" function="internal">
        <lane id=":ON_A1M_C_1_0" index="0" speed="70.00" length="8.18" shape="-102.85,77.58 -100.84,76.58 -99.60,75.54 -98.33,74.61 -96.22,73.97"/>
        <lane id=":ON_A1M_C_1_1" index="1" speed="70.00" length="8.18" shape="-103.89,74.56 -101.72,73.50 -100.37,72.43 -98.99,71.47 -96.73,70.81"/>
        <lane id=":ON_A1M_C_1_2" index="2" speed="70.00" length="8.18" shape="-104.93,71.53 -102.61,70.43 -101.15,69.31 -99.65,68.34 -97.23,67.65"/>
    </edge>
    <edge id=":ON_M11_AC_0" function="internal">
        <lane id=":ON_M11_AC_0_0" index="0" speed="26.15" length="64.65" shape="9057.57,-175.61 9057.96,-165.49 9058.28,-147.16 9055.74,-127.48 9047.56,-113.32"/>
    </edge>
    <edge id=":ON_M11_AC_1" function="internal">
        <lane id=":ON_M11_AC_1_0" index="0" speed="30.59" length="68.40" shape="9060.91,-174.94 9059.72,-160.51 9059.71,-141.98 9057.45,-123.89 9049.51,-110.78"/>
        <lane id=":ON_M11_AC_1_1" index="1" speed="31.00" length="68.40" shape="9064.00,-174.10 9062.63,-159.41 9062.22,-140.29 9059.57,-121.61 9051.45,-108.24"/>
        <lane id=":ON_M11_AC_1_2" index="2" speed="31.41" length="68.40" shape="9067.09,-173.27 9065.54,-158.31 9064.74,-138.60 9061.69,-119.34 9053.39,-105.69"/>
    </edge>
    <edge id=":ON_M11_C_0" function="internal">
        <lane id=":ON_M11_C_0_0" index="0" speed="18.82" length="12.94" shape="8947.02,112.01 8949.11,110.08 8951.93,109.93 8955.26,109.91 8958.89,108.39"/>
    </edge>
    <edge id=":ON_M11_C_1" function="internal">
        <lane id=":ON_M11_C_1_0" index="0" speed="13.50" length="10.76" shape="8944.75,108.35 8948.59,108.51 8951.33,108.53 8953.83,107.84 8956.95,105.85"/>
        <lane id=":ON_M11_C_1_1" index="1" speed="12.37" length="10.76" shape="8944.78,105.15 8947.99,105.33 8950.29,105.43 8952.40,104.93 8955.01,103.30"/>
        <lane id=":ON_M11_C_1_2" index="2" speed="11.13" length="10.76" shape="8944.80,101.95 8947.39,102.14 8949.25,102.32 8950.96,102.02 8953.06,100.76"/>
    </edge>
    <edge id=":ON_M1_AC_0" function="internal">
        <lane id=":ON_M1_AC_0_0" index="0" speed="16.15" length="32.34" shape="-3857.60,1264.72 -3867.57,1271.04 -3875.77,1275.16 -3882.19,1277.07 -3886.84,1276.78"/>
    </edge>
    <edge id=":ON_M1_AC_1" function="internal">
        <lane id=":ON_M1_AC_1_0" index="0" speed="21.50" length="37.90" shape="-3855.92,1268.04 -3864.65,1272.79 -3871.25,1277.99 -3878.20,1281.15 -3887.95,1279.78"/>
        <lane id=":ON_M1_AC_1_1" index="1" speed="22.11" length="37.90" shape="-3854.87,1271.06 -3863.80,1275.86 -3870.92,1281.14 -3878.57,1284.30 -3889.07,1282.78"/>
        <lane id=":ON_M1_AC_1_2" index="2" speed="22.70" length="37.90" shape="-3853.81,1274.08 -3862.95,1278.93 -3870.59,1284.28 -3878.94,1287.45 -3890.18,1285.78"/>
    </edge>
    <edge id=":ON_M1_C_0" function="internal">
        <lane id=":ON_M1_C_0_0" index="0" speed="11.63" length="12.47" shape="-4125.58,1320.35 -4124.04,1320.16 -4121.52,1320.55 -4118.02,1321.52 -4113.55,1323.08"/>
    </edge>
    <edge id=":ON_M1_C_1" function="internal">
        <lane id=":ON_M1_C_1_0" index="0" speed="11.64" length="7.58" shape="-4119.47,1313.78 -4117.96,1316.24 -4116.70,1317.83 -4115.06,1318.97 -4112.43,1320.08"/>
        <lane id=":ON_M1_C_1_1" index="1" speed="10.30" length="7.58" shape="-4116.73,1312.13 -4115.57,1314.04 -4114.60,1315.30 -4113.35,1316.21 -4111.32,1317.08"/>
        <lane id=":ON_M1_C_1_2" index="2" speed="8.77" length="7.58" shape="-4113.99,1310.47 -4113.17,1311.85 -4112.51,1312.77 -4111.64,1313.44 -4110.20,1314.08"/>
    </edge>
    <edge id=":ON_M20_AC_0" function="internal">
        <lane id=":ON_M20_AC_0_0" index="0" speed="7.91" length="5.42" shape="10902.23,-13081.62 10903.60,-13080.87 10904.38,-13080.09 10904.90,-13079.07 10905.46,-13077.56"/>
    </edge>
    <edge id=":ON_M20_AC_1" function="internal">
        <lane id=":ON_M20_AC_1_0" index="0" speed="70.00" length="4.07" shape="10908.17,-13083.11 10908.31,-13081.80 10908.21,-13080.87 10908.15,-13079.95 10908.45,-13078.68"/>
        <lane id=":ON_M20_AC_1_1" index="1" speed="70.00" length="4.07" shape="10911.29,-13083.83 10911.41,-13082.64 10911.27,-13081.79 10911.19,-13080.95 10911.45,-13079.81"/>
        <lane id=":ON_M20_AC_1_2" index="2" speed="70.00" length="4.07" shape="10914.41,-13084.54 10914.50,-13083.47 10914.34,-13082.71 10914.23,-13081.96 10914.45,-13080.93"/>
    </edge>
    <edge id=":ON_M20_C_0" function="internal">
        <lane id=":ON_M20_C_0_0" index="0" speed="7.81" length="5.27" shape="11098.56,-12918.01 11097.15,-12918.67 11096.20,-12919.26 11095.52,-12920.09 11094.90,-12921.48"/>
    </edge>
    <edge id=":ON_M20_C_1" function="internal">
        <lane id=":ON_M20_C_1_0" index="0" speed="70.00" length="6.99" shape="11095.75,-12915.06 11094.66,-12916.68 11093.68,-12917.65 11092.77,-12918.65 11091.90,-12920.36"/>
        <lane id=":ON_M20_C_1_1" index="1" speed="70.00" length="6.99" shape="11092.91,-12913.57 11091.78,-12915.29 11090.76,-12916.34 11089.82,-12917.41 11088.91,-12919.24"/>
        <lane id=":ON_M20_C_1_2" index="2" speed="70.00" length="6.99" shape="11090.08,-12912.08 11088.89,-12913.91 11087.84,-12915.03 11086.86,-12916.18 11085.91,-12918.12"/>
    </edge>
    <edge id=":ON_M23_AC_0" function="internal">
        <lane id=":ON_M23_AC_0_0" index="0" speed="9.69" length="8.43" shape="2903.11,-17211.92 2904.37,-17214.12 2905.30,-17215.72 2906.54,-17216.86 2908.78,-17217.63"/>
    </edge>
    <edge id=":ON_M23_AC_1" function="internal">
        <lane id=":ON_M23_AC_1_0" index="0" speed="70.00" length="10.56" shape="2900.49,-17214.88 2902.84,-17216.56 2904.15,-17218.24 2905.54,-17219.72 2908.10,-17220.76"/>
        <lane id=":ON_M23_AC_1_1" index="1" speed="70.00" length="10.56" shape="2899.07,-17217.75 2901.62,-17219.52 2903.09,-17221.27 2904.64,-17222.79 2907.43,-17223.89"/>
        <lane id=":ON_M23_AC_1_2" index="2" speed="70.00" length="10.56" shape="2897.65,-17220.61 2900.41,-17222.49 2902.03,-17224.30 2903.74,-17225.87 2906.75,-17227.02"/>
    </edge>
    <edge id=":ON_M23_C_0" function="internal">
        <lane id=":ON_M23_C_0_0" index="0" speed="8.92" length="7.09" shape="3094.73,-17384.78 3093.47,-17383.22 3092.24,-17382.50 3090.74,-17382.18 3088.65,-17381.81"/>
    </edge>
    <edge id=":ON_M23_C_1" function="internal">
        <lane id=":ON_M23_C_1_0" index="0" speed="70.00" length="4.79" shape="3094.70,-17377.71 3093.08,-17377.98 3091.99,-17378.45 3090.90,-17378.79 3089.32,-17378.68"/>
        <lane id=":ON_M23_C_1_1" index="1" speed="70.00" length="4.79" shape="3094.57,-17374.51 3093.19,-17374.78 3092.26,-17375.25 3091.35,-17375.61 3090.00,-17375.56"/>
        <lane id=":ON_M23_C_1_2" index="2" speed="70.00" length="4.79" shape="3094.45,-17371.31 3093.30,-17371.58 3092.54,-17372.05 3091.79,-17372.44 3090.67,-17372.43"/>
    </edge>
    <edge id=":ON_M26_AC_0" function="internal">
        <lane id=":ON_M26_AC_0_0" index="0" speed="25.64" length="61.69" shape="9818.81,-17015.22 9828.09,-17017.88 9844.81,-17022.30 9863.52,-17024.26 9878.73,-17019.54"/>
    </edge>
    <edge id=":ON_M26_AC_1" function="internal">
        <lane id=":ON_M26_AC_1_0" index="0" speed="30.24" length="65.38" shape="9818.70,-17018.64 9832.54,-17020.71 9849.53,-17024.86 9866.61,-17026.74 9880.75,-17022.02"/>
        <lane id=":ON_M26_AC_1_1" index="1" speed="30.66" length="65.38" shape="9818.82,-17021.84 9832.95,-17023.80 9850.59,-17027.70 9868.34,-17029.33 9882.77,-17024.51"/>
        <lane id=":ON_M26_AC_1_2" index="2" speed="31.08" length="65.38" shape="9818.93,-17025.03 9833.36,-17026.88 9851.66,-17030.54 9870.06,-17031.93 9884.79,-17026.99"/>
    </edge>
    <edge id=":ON_M26_C_0" function="internal">