<?xml version="1.0" encoding="UTF-8"?>

<!-- generated on 2022-04-11 13:40:29 by Eclipse SUMO netedit Version 1.10.0
<configuration xmlns:xsi="http://www.w3.org/2001/XMLSchema-instance" xsi:noNamespaceSchemaLocation="http://sumo.dlr.de/xsd/netconvertConfiguration.xsd">

    <input>
        <sumo-net-file value="C:\Users\jagge\OneDrive%20-%20Loughborough%20University\FYP%20-%20SUMO\Network\all.net.xml"/>
    </input>

    <output>
        <output-file value="C:\Users\jagge\OneDrive%20-%20Loughborough%20University\FYP%20-%20SUMO\Network\base.net.xml"/>
    </output>

    <processing>
        <geometry.min-radius.fix.railways value="false"/>
        <geometry.max-grade.fix value="false"/>
        <offset.disable-normalization value="true"/>
        <lefthand value="true"/>
    </processing>

    <junctions>
        <no-turnarounds value="true"/>
        <junctions.corner-detail value="5"/>
        <junctions.limit-turn-speed value="5.5"/>
        <rectangular-lane-cut value="false"/>
    </junctions>

    <pedestrian>
        <walkingareas value="false"/>
    </pedestrian>

    <netedit>
        <route-files value="C:\Users\jagge\OneDrive%20-%20Loughborough%20University\FYP%20-%20SUMO\Network\demand.rou.xml"/>
    </netedit>

    <report>
        <aggregate-warnings value="5"/>
    </report>

</configuration>
-->

<routes xmlns:xsi="http://www.w3.org/2001/XMLSchema-instance" xsi:noNamespaceSchemaLocation="http://sumo.dlr.de/xsd/routes_file.xsd">
    <vType id="DEFAULT_VEHTYPE" vClass="passenger"/>
    <vType id="bus" maxSpeed="60.00" vClass="bus" accel="2.5" decel="4"/>
    <vType id="lorry" maxSpeed="56.0" vClass="truck" accel="2.2" decel="3.6"/>
    <vType id="motorcycle" maxSpeed="70.00" vClass="motorcycle" accel="2.8" decel="5"/>
    <vType id="passenger" maxSpeed="70.00" accel="2.6" decel="4.5"/>
       <trip id="vehicle_0" type="passenger" depart="0" from="TLON_A1M_C" to="LOFF_M3_C"/>
   <trip id="vehicle_1" type="passenger" depart="0.1" from="TLON_M40_AC" to="LOFF_M3_AC"/>
   <trip id="vehicle_2" type="passenger" depart="0.2" from="TLON_M23_C" to="LOFF_M20_C"/>
   <trip id="vehicle_3" type="passenger" depart="0.3" from="TLON_M40_C" to="LOFF_M20_C"/>
   <trip id="vehicle_4" type="passenger" depart="0.4" from="TLON_M2_C" to="LOFF_M1_C"/>
   <trip id="vehicle_5" type="passenger" depart="0.5" from="TLON_M40_AC" to="LOFF_M3_AC"/>
   <trip id="vehicle_6" type="passenger" depart="0.6" from="TLON_M11_C" to="LOFF_M26_C"/>
   <trip id="vehicle_7" type="passenger" depart="0.7" from="TLON_M2_C" to="LOFF_M3_C"/>
   <trip id="vehicle_8" type="passenger" depart="0.8" from="TLON_M2_C" to="LOFF_M23_C"/>
   <trip id="vehicle_9" type="passenger" depart="0.9" from="TLON_M40_C" to="LOFF_M11_C"/>
   <trip id="vehicle_10" type="passenger" depart="1" from="TLON_M20_AC" to="LOFF_M40_AC"/>
   <trip id="vehicle_11" type="lorry" depart="1.1" from="TLON_M3_AC" to="LOFF_M2_AC"/>
   <trip id="vehicle_12" type="passenger" depart="1.2" from="TLON_M3_C" to="LOFF_M2_C"/>
   <trip id="vehicle_13" type="passenger" depart="1.3" from="TLON_M40_AC" to="LOFF_M23_AC"/>
   <trip id="vehicle_14" type="lorry" depart="1.4" from="TLON_M40_C" to="LOFF_M26_C"/>
   <trip id="vehicle_15" type="passenger" depart="1.5" from="TLON_M4_C" to="LOFF_M26_C"/>
   <trip id="vehicle_16" type="passenger" depart="1.6" from="TLON_M40_AC" to="LOFF_M2_AC"/>
   <trip id="vehicle_17" type="lorry" depart="1.7" from="TLON_M1_C" to="LOFF_M23_C"/>
   <trip id="vehicle_18" type="passenger" depart="1.8" from="TLON_A1M_AC" to="LOFF_M4_AC"/>
   <trip id="vehicle_19" type="lorry" depart="1.9" from="TLON_A1M_AC" to="LOFF_M2_AC"/>
   <trip id="vehicle_20" type="passenger" depart="2" from="TLON_M40_C" to="LOFF_M26_C"/>
   <trip id="vehicle_21" type="passenger" depart="2.1" from="TLON_M20_C" to="LOFF_M26_C"/>
   <trip id="vehicle_22" type="passenger" depart="2.2" from="TLON_M26_AC" to="LOFF_M1_AC"/>
   <trip id="vehicle_23" type="passenger" depart="2.3" from="TLON_M11_AC" to="LOFF_M2_AC"/>
   <trip id="vehicle_24" type="passenger" depart="2.4" from="TLON_M11_C" to="LOFF_M2_C"/>
   <trip id="vehicle_25" type="passenger" depart="2.5" from="TLON_M4_C" to="LOFF_M26_C"/>
   <trip id="vehicle_26" type="passenger" depart="2.6" from="TLON_M20_AC" to="LOFF_M2_AC"/>
   <trip id="vehicle_27" type="lorry" depart="2.7" from="TLON_M26_C" to="LOFF_M2_C"/>
   <trip id="vehicle_28" type="passenger" depart="2.8" from="TLON_M40_C" to="LOFF_M11_C"/>
   <trip id="vehicle_29" type="passenger" depart="2.9" from="TLON_M11_C" to="LOFF_M3_C"/>
   <trip id="vehicle_30" type="passenger" depart="3" from="TLON_M3_AC" to="LOFF_M11_AC"/>
   <trip id="vehicle_31" type="lorry" depart="3.1" from="TLON_M11_AC" to="LOFF_M20_AC"/>
   <trip id="vehicle_32" type="passenger" depart="3.2" from="TLON_M1_C" to="LOFF_M4_C"/>
   <trip id="vehicle_33" type="passenger" depart="3.3" from="TLON_M20_C" to="LOFF_M23_C"/>
   <trip id="vehicle_34" type="passenger" depart="3.4" from="TLON_M26_C" to="LOFF_M3_C"/>
   <trip id="vehicle_35" type="passenger" depart="3.5" from="TLON_M23_AC" to="LOFF_M3_AC"/>
   <trip id="vehicle_36" type="lorry" depart="3.6" from="TLON_M3_AC" to="LOFF_M26_AC"/>
   <trip id="vehicle_37" type="passenger" depart="3.7" from="TLON_M3_C" to="LOFF_M40_C"/>
   <trip id="vehicle_38" type="passenger" depart="3.8" from="TLON_M2_AC" to="LOFF_M11_AC"/>
   <trip id="vehicle_39" type="passenger" depart="3.9" from="TLON_M1_C" to="LOFF_M2_C"/>
   <trip id="vehicle_40" type="lorry" depart="4" from="TLON_A1M_C" to="LOFF_M2_C"/>
   <trip id="vehicle_41" type="lorry" depart="4.1" from="TLON_M26_AC" to="LOFF_M23_AC"/>
   <trip id="vehicle_42" type="lorry" depart="4.2" from="TLON_M26_AC" to="LOFF_M40_AC"/>
   <trip id="vehicle_43" type="passenger" depart="4.3" from="TLON_M11_AC" to="LOFF_M3_AC"/>
   <trip id="vehicle_44" type="passenger" depart="4.4" from="TLON_M20_C" to="LOFF_M3_C"/>
   <trip id="vehicle_45" type="passenger" depart="4.5" from="TLON_M26_C" to="LOFF_M1_C"/>
   <trip id="vehicle_46" type="passenger" depart="4.6" from="TLON_M4_AC" to="LOFF_M20_AC"/>
   <trip id="vehicle_47" type="passenger" depart="4.7" from="TLON_A1M_AC" to="LOFF_M2_AC"/>
   <trip id="vehicle_48" type="passenger" depart="4.8" from="TLON_M4_AC" to="LOFF_M26_AC"/>
   <trip id="vehicle_49" type="passenger" depart="4.9" from="TLON_M1_C" to="LOFF_M4_C"/>
   <trip id="vehicle_50" type="lorry" depart="5" from="TLON_A1M_C" to="LOFF_M11_C"/>
   <trip id="vehicle_51" type="passenger" depart="5.1" from="TLON_M1_C" to="LOFF_M40_C"/>
   <trip id="vehicle_52" type="passenger" depart="5.2" from="TLON_M3_C" to="LOFF_M23_C"/>
   <trip id="vehicle_53" type="lorry" depart="5.3" from="TLON_M4_C" to="LOFF_M2_C"/>
   <trip id="vehicle_54" type="passenger" depart="5.4" from="TLON_M40_C" to="LOFF_M20_C"/>
   <trip id="vehicle_55" type="passenger" depart="5.5" from="TLON_M40_C" to="LOFF_M26_C"/>
   <trip id="vehicle_56" type="lorry" depart="5.6" from="TLON_M1_AC" to="LOFF_M20_AC"/>
   <trip id="vehicle_57" type="passenger" depart="5.7" from="TLON_M26_AC" to="LOFF_M1_AC"/>
   <trip id="vehicle_58" type="passenger" depart="5.8" from="TLON_M40_C" to="LOFF_M4_C"/>
   <trip id="vehicle_59" type="passenger" depart="5.9" from="TLON_M23_C" to="LOFF_M26_C"/>
   <trip id="vehicle_60" type="passenger" depart="6" from="TLON_A1M_C" to="LOFF_M3_C"/>
   <trip id="vehicle_61" type="passenger" depart="6.1" from="TLON_M3_AC" to="LOFF_M20_AC"/>
   <trip id="vehicle_62" type="lorry" depart="6.2" from="TLON_M20_C" to="LOFF_M4_C"/>
   <trip id="vehicle_63" type="passenger" depart="6.3" from="TLON_M23_AC" to="LOFF_M4_AC"/>
   <trip id="vehicle_64" type="passenger" depart="6.4" from="TLON_M26_AC" to="LOFF_M1_AC"/>
   <trip id="vehicle_65" type="passenger" depart="6.5" from="TLON_M40_C" to="LOFF_M20_C"/>
   <trip id="vehicle_66" type="passenger" depart="6.6" from="TLON_M1_AC" to="LOFF_M40_AC"/>
   <trip id="vehicle_67" type="lorry" depart="6.7" from="TLON_M20_AC" to="LOFF_M2_AC"/>
   <trip id="vehicle_68" type="passenger" depart="6.8" from="TLON_A1M_C" to="LOFF_M3_C"/>
   <trip id="vehicle_69" type="passenger" depart="6.9" from="TLON_M40_C" to="LOFF_A1M_C"/>
   <trip id="vehicle_70" type="passenger" depart="7" from="TLON_M1_AC" to="LOFF_M26_AC"/>
   <trip id="vehicle_71" type="lorry" depart="7.1" from="TLON_M1_C" to="LOFF_A1M_C"/>
   <trip id="vehicle_72" type="passenger" depart="7.2" from="TLON_A1M_C" to="LOFF_M1_C"/>
   <trip id="vehicle_73" type="passenger" depart="7.3" from="TLON_M20_AC" to="LOFF_M11_AC"/>
   <trip id="vehicle_74" type="passenger" depart="7.4" from="TLON_M11_AC" to="LOFF_M40_AC"/>
   <trip id="vehicle_75" type="passenger" depart="7.5" from="TLON_M20_AC" to="LOFF_M2_AC"/>
   <trip id="vehicle_76" type="passenger" depart="7.6" from="TLON_A1M_AC" to="LOFF_M4_AC"/>
   <trip id="vehicle_77" type="lorry" depart="7.7" from="TLON_M20_C" to="LOFF_A1M_C"/>
   <trip id="vehicle_78" type="passenger" depart="7.8" from="TLON_M11_AC" to="LOFF_M26_AC"/>
   <trip id="vehicle_79" type="passenger" depart="7.9" from="TLON_A1M_C" to="LOFF_M20_C"/>
   <trip id="vehicle_80" type="lorry" depart="8" from="TLON_M26_C" to="LOFF_M23_C"/>
   <trip id="vehicle_81" type="lorry" depart="8.1" from="TLON_M3_AC" to="LOFF_M23_AC"/>
   <trip id="vehicle_82" type="passenger" depart="8.2" from="TLON_M11_C" to="LOFF_M4_C"/>
   <trip id="vehicle_83" type="passenger" depart="8.3" from="TLON_M3_C" to="LOFF_M11_C"/>
   <trip id="vehicle_84" type="lorry" depart="8.4" from="TLON_M2_C" to="LOFF_M3_C"/>
   <trip id="vehicle_85" type="passenger" depart="8.5" from="TLON_A1M_AC" to="LOFF_M11_AC"/>
   <trip id="vehicle_86" type="passenger" depart="8.6" from="TLON_M40_C" to="LOFF_M23_C"/>
   <trip id="vehicle_87" type="passenger" depart="8.7" from="TLON_M40_C" to="LOFF_M26_C"/>
   <trip id="vehicle_88" type="passenger" depart="8.8" from="TLON_M23_AC" to="LOFF_M11_AC"/>
   <trip id="vehicle_89" type="lorry" depart="8.9" from="TLON_M23_C" to="LOFF_M26_C"/>
   <trip id="vehicle_90" type="passenger" depart="9" from="TLON_M23_C" to="LOFF_M20_C"/>
   <trip id="vehicle_91" type="passenger" depart="9.1" from="TLON_A1M_C" to="LOFF_M2_C"/>
   <trip id="vehicle_92" type="lorry" depart="9.2" from="TLON_M26_C" to="LOFF_M23_C"/>
   <trip id="vehicle_93" type="passenger" depart="9.3" from="TLON_M11_AC" to="LOFF_M4_AC"/>
   <trip id="vehicle_94" type="passenger" depart="9.4" from="TLON_M23_C" to="LOFF_M3_C"/>
   <trip id="vehicle_95" type="lorry" depart="9.5" from="TLON_M1_AC" to="LOFF_M2_AC"/>
   <trip id="vehicle_96" type="passenger" depart="9.6" from="TLON_M23_C" to="LOFF_M4_C"/>
   <trip id="vehicle_97" type="passenger" depart="9.7" from="TLON_M26_AC" to="LOFF_M1_AC"/>
   <trip id="vehicle_98" type="passenger" depart="9.8" from="TLON_M4_AC" to="LOFF_M11_AC"/>
   <trip id="vehicle_99" type="passenger" depart="9.9" from="TLON_M2_C" to="LOFF_M40_C"/>
   <trip id="vehicle_100" type="passenger" depart="10" from="TLON_M23_C" to="LOFF_M1_C"/>
   <trip id="vehicle_101" type="passenger" depart="10.1" from="TLON_M11_AC" to="LOFF_M3_AC"/>
   <trip id="vehicle_102" type="passenger" depart="10.2" from="TLON_M26_C" to="LOFF_M40_C"/>
   <trip id="vehicle_103" type="passenger" depart="10.3" from="TLON_M23_AC" to="LOFF_M3_AC"/>
   <trip id="vehicle_104" type="passenger" depart="10.4" from="TLON_M2_C" to="LOFF_M20_C"/>
   <trip id="vehicle_105" type="passenger" depart="10.5" from="TLON_M1_C" to="LOFF_M3_C"/>
   <trip id="vehicle_106" type="passenger" depart="10.6" from="TLON_M3_AC" to="LOFF_M23_AC"/>
   <trip id="vehicle_107" type="passenger" depart="10.7" from="TLON_M23_C" to="LOFF_A1M_C"/>
   <trip id="vehicle_108" type="passenger" depart="10.8" from="TLON_M23_AC" to="LOFF_M26_AC"/>
   <trip id="vehicle_109" type="passenger" depart="10.9" from="TLON_M1_AC" to="LOFF_M4_AC"/>
   <trip id="vehicle_110" type="passenger" depart="11" from="TLON_M40_AC" to="LOFF_M23_AC"/>
   <trip id="vehicle_111" type="lorry" depart="11.1" from="TLON_M1_C" to="LOFF_M2_C"/>
   <trip id="vehicle_112" type="passenger" depart="11.2" from="TLON_M23_AC" to="LOFF_M1_AC"/>
   <trip id="vehicle_113" type="lorry" depart="11.3" from="TLON_M3_AC" to="LOFF_M40_AC"/>
   <trip id="vehicle_114" type="passenger" depart="11.4" from="TLON_M40_AC" to="LOFF_M2_AC"/>
   <trip id="vehicle_115" type="lorry" depart="11.5" from="TLON_A1M_C" to="LOFF_M4_C"/>
   <trip id="vehicle_116" type="passenger" depart="11.6" from="TLON_M26_AC" to="LOFF_A1M_AC"/>
   <trip id="vehicle_117" type="passenger" depart="11.7" from="TLON_M26_AC" to="LOFF_M2_AC"/>
   <trip id="vehicle_118" type="passenger" depart="11.8" from="TLON_M11_C" to="LOFF_A1M_C"/>
   <trip id="vehicle_119" type="passenger" depart="11.9" from="TLON_M26_C" to="LOFF_M23_C"/>
   <trip id="vehicle_120" type="passenger" depart="12" from="TLON_M4_C" to="LOFF_M40_C"/>
   <trip id="vehicle_121" type="lorry" depart="12.1" from="TLON_M11_C" to="LOFF_M23_C"/>
   <trip id="vehicle_122" type="passenger" depart="12.2" from="TLON_M40_C" to="LOFF_M20_C"/>
   <trip id="vehicle_123" type="passenger" depart="12.3" from="TLON_M4_C" to="LOFF_M1_C"/>
   <trip id="vehicle_124" type="passenger" depart="12.4" from="TLON_M23_AC" to="LOFF_M2_AC"/>
   <trip id="vehicle_125" type="passenger" depart="12.5" from="TLON_M1_AC" to="LOFF_A1M_AC"/>
   <trip id="vehicle_126" type="passenger" depart="12.6" from="TLON_M3_AC" to="LOFF_M40_AC"/>
   <trip id="vehicle_127" type="passenger" depart="12.7" from="TLON_M20_C" to="LOFF_M11_C"/>
   <trip id="vehicle_128" type="passenger" depart="12.8" from="TLON_M26_AC" to="LOFF_M2_AC"/>
   <trip id="vehicle_129" type="lorry" depart="12.9" from="TLON_A1M_C" to="LOFF_M1_C"/>
   <trip id="vehicle_130" type="passenger" depart="13" from="TLON_M1_C" to="LOFF_M11_C"/>
   <trip id="vehicle_131" type="lorry" depart="13.1" from="TLON_M1_C" to="LOFF_M40_C"/>
   <trip id="vehicle_132" type="passenger" depart="13.2" from="TLON_M2_AC" to="LOFF_M23_AC"/>
   <trip id="vehicle_133" type="passenger" depart="13.3" from="TLON_M40_C" to="LOFF_M1_C"/>
   <trip id="vehicle_134" type="passenger" depart="13.4" from="TLON_M26_C" to="LOFF_M23_C"/>
   <trip id="vehicle_135" type="passenger" depart="13.5" from="TLON_A1M_AC" to="LOFF_M11_AC"/>
   <trip id="vehicle_136" type="passenger" depart="13.6" from="TLON_M4_C" to="LOFF_M1_C"/>
   <trip id="vehicle_137" type="motorcycle" depart="13.7" from="TLON_M3_C" to="LOFF_M4_C"/>
   <trip id="vehicle_138" type="passenger" depart="13.8" from="TLON_M26_AC" to="LOFF_A1M_AC"/>
   <trip id="vehicle_139" type="passenger" depart="13.9" from="TLON_M1_AC" to="LOFF_M40_AC"/>
   <trip id="vehicle_140" type="passenger" depart="14" from="TLON_M2_AC" to="LOFF_M3_AC"/>
   <trip id="vehicle_141" type="passenger" depart="14.1" from="TLON_M26_AC" to="LOFF_M2_AC"/>
   <trip id="vehicle_142" type="lorry" depart="14.2" from="TLON_M20_C" to="LOFF_A1M_C"/>
   <trip id="vehicle_143" type="passenger" depart="14.3" from="TLON_M4_C" to="LOFF_A1M_C"/>
   <trip id="vehicle_144" type="lorry" depart="14.4" from="TLON_M2_C" to="LOFF_M23_C"/>
   <trip id="vehicle_145" type="passenger" depart="14.5" from="TLON_M4_C" to="LOFF_M40_C"/>
   <trip id="vehicle_146" type="passenger" depart="14.6" from="TLON_M26_C" to="LOFF_M40_C"/>
   <trip id="vehicle_147" type="passenger" depart="14.7" from="TLON_M1_AC" to="LOFF_M26_AC"/>
   <trip id="vehicle_148" type="passenger" depart="14.8" from="TLON_M4_C" to="LOFF_M40_C"/>
   <trip id="vehicle_149" type="passenger" depart="14.9" from="TLON_A1M_C" to="LOFF_M4_C"/>
   <trip id="vehicle_150" type="passenger" depart="15" from="TLON_M11_AC" to="LOFF_M4_AC"/>
   <trip id="vehicle_151" type="passenger" depart="15.1" from="TLON_M23_AC" to="LOFF_M40_AC"/>
   <trip id="vehicle_152" type="passenger" depart="15.2" from="TLON_M2_C" to="LOFF_M11_C"/>
   <trip id="vehicle_153" type="passenger" depart="15.3" from="TLON_M20_AC" to="LOFF_M1_AC"/>
   <trip id="vehicle_154" type="passenger" depart="15.4" from="TLON_M4_AC" to="LOFF_M40_AC"/>
   <trip id="vehicle_155" type="lorry" depart="15.5" from="TLON_M3_AC" to="LOFF_M20_AC"/>
   <trip id="vehicle_156" type="passenger" depart="15.6" from="TLON_M40_C" to="LOFF_M23_C"/>
   <trip id="vehicle_157" type="lorry" depart="15.7" from="TLON_M2_C" to="LOFF_M4_C"/>
   <trip id="vehicle_158" type="passenger" depart="15.8" from="TLON_M1_AC" to="LOFF_A1M_AC"/>
   <trip id="vehicle_159" type="passenger" depart="15.9" from="TLON_A1M_C" to="LOFF_M2_C"/>
   <trip id="vehicle_160" type="passenger" depart="16" from="TLON_M2_C" to="LOFF_A1M_C"/>
   <trip id="vehicle_161" type="lorry" depart="16.1" from="TLON_M1_AC" to="LOFF_M40_AC"/>
   <trip id="vehicle_162" type="lorry" depart="16.2" from="TLON_M26_C" to="LOFF_M23_C"/>
   <trip id="vehicle_163" type="passenger" depart="16.3" from="TLON_A1M_AC" to="LOFF_M23_AC"/>
   <trip id="vehicle_164" type="lorry" depart="16.4" from="TLON_M20_AC" to="LOFF_M4_AC"/>
   <trip id="vehicle_165" type="passenger" depart="16.5" from="TLON_M20_C" to="LOFF_A1M_C"/>
   <trip id="vehicle_166" type="passenger" depart="16.6" from="TLON_M40_AC" to="LOFF_M3_AC"/>
   <trip id="vehicle_167" type="passenger" depart="16.7" from="TLON_M1_C" to="LOFF_M40_C"/>
   <trip id="vehicle_168" type="passenger" depart="16.8" from="TLON_M2_AC" to="LOFF_M40_AC"/>
   <trip id="vehicle_169" type="passenger" depart="16.9" from="TLON_M11_C" to="LOFF_M20_C"/>
   <trip id="vehicle_170" type="passenger" depart="17" from="TLON_M40_C" to="LOFF_M4_C"/>
   <trip id="vehicle_171" type="passenger" depart="17.1" from="TLON_M1_AC" to="LOFF_M4_AC"/>
   <trip id="vehicle_172" type="passenger" depart="17.2" from="TLON_M4_AC" to="LOFF_M1_AC"/>
   <trip id="vehicle_173" type="passenger" depart="17.3" from="TLON_M26_AC" to="LOFF_A1M_AC"/>
   <trip id="vehicle_174" type="passenger" depart="17.4" from="TLON_M11_C" to="LOFF_A1M_C"/>
   <trip id="vehicle_175" type="passenger" depart="17.5" from="TLON_M2_AC" to="LOFF_M23_AC"/>
   <trip id="vehicle_176" type="passenger" depart="17.6" from="TLON_M2_AC" to="LOFF_M40_AC"/>
   <trip id="vehicle_177" type="passenger" depart="17.7" from="TLON_M4_AC" to="LOFF_M3_AC"/>
   <trip id="vehicle_178" type="lorry" depart="17.8" from="TLON_M40_AC" to="LOFF_A1M_AC"/>
   <trip id="vehicle_179" type="passenger" depart="17.9" from="TLON_M40_AC" to="LOFF_M23_AC"/>
   <trip id="vehicle_180" type="passenger" depart="18" from="TLON_M20_AC" to="LOFF_M11_AC"/>
   <trip id="vehicle_181" type="passenger" depart="18.1" from="TLON_M23_AC" to="LOFF_A1M_AC"/>
   <trip id="vehicle_182" type="passenger" depart="18.2" from="TLON_A1M_AC" to="LOFF_M23_AC"/>
   <trip id="vehicle_183" type="passenger" depart="18.3" from="TLON_M23_AC" to="LOFF_M2_AC"/>
   <trip id="vehicle_184" type="passenger" depart="18.4" from="TLON_M40_AC" to="LOFF_M3_AC"/>
   <trip id="vehicle_185" type="passenger" depart="18.5" from="TLON_A1M_C" to="LOFF_M4_C"/>
   <trip id="vehicle_186" type="passenger" depart="18.6" from="TLON_M1_AC" to="LOFF_M3_AC"/>
   <trip id="vehicle_187" type="passenger" depart="18.7" from="TLON_M23_AC" to="LOFF_M11_AC"/>
   <trip id="vehicle_188" type="passenger" depart="18.8" from="TLON_M4_AC" to="LOFF_M2_AC"/>
   <trip id="vehicle_189" type="passenger" depart="18.9" from="TLON_M23_C" to="LOFF_M20_C"/>
   <trip id="vehicle_190" type="passenger" depart="19" from="TLON_M23_C" to="LOFF_M20_C"/>
   <trip id="vehicle_191" type="passenger" depart="19.1" from="TLON_M20_C" to="LOFF_A1M_C"/>
   <trip id="vehicle_192" type="lorry" depart="19.2" from="TLON_M11_AC" to="LOFF_M40_AC"/>
   <trip id="vehicle_193" type="passenger" depart="19.3" from="TLON_M4_AC" to="LOFF_M2_AC"/>
   <trip id="vehicle_194" type="passenger" depart="19.4" from="TLON_M40_AC" to="LOFF_M11_AC"/>
   <trip id="vehicle_195" type="passenger" depart="19.5" from="TLON_M1_AC" to="LOFF_M11_AC"/>
   <trip id="vehicle_196" type="passenger" depart="19.6" from="TLON_M11_C" to="LOFF_M23_C"/>
   <trip id="vehicle_197" type="passenger" depart="19.7" from="TLON_M4_AC" to="LOFF_M3_AC"/>
   <trip id="vehicle_198" type="passenger" depart="19.8" from="TLON_M11_AC" to="LOFF_M3_AC"/>
   <trip id="vehicle_199" type="passenger" depart="19.9" from="TLON_A1M_AC" to="LOFF_M1_AC"/>
   <trip id="vehicle_200" type="passenger" depart="20" from="TLON_M3_C" to="LOFF_M40_C"/>
   <trip id="vehicle_201" type="passenger" depart="20.1" from="TLON_M20_C" to="LOFF_M3_C"/>
   <trip id="vehicle_202" type="passenger" depart="20.2" from="TLON_M1_AC" to="LOFF_M11_AC"/>
   <trip id="vehicle_203" type="lorry" depart="20.3" from="TLON_M20_C" to="LOFF_M11_C"/>
   <trip id="vehicle_204" type="passenger" depart="20.4" from="TLON_M26_C" to="LOFF_A1M_C"/>
   <trip id="vehicle_205" type="passenger" depart="20.5" from="TLON_M20_C" to="LOFF_M1_C"/>
   <trip id="vehicle_206" type="passenger" depart="20.6" from="TLON_M11_C" to="LOFF_M2_C"/>
   <trip id="vehicle_207" type="lorry" depart="20.7" from="TLON_M23_C" to="LOFF_M26_C"/>
   <trip id="vehicle_208" type="passenger" depart="20.8" from="TLON_M11_C" to="LOFF_M2_C"/>
   <trip id="vehicle_209" type="passenger" depart="20.9" from="TLON_M2_C" to="LOFF_M4_C"/>
   <trip id="vehicle_210" type="passenger" depart="21" from="TLON_M3_AC" to="LOFF_M26_AC"/>
   <trip id="vehicle_211" type="passenger" depart="21.1" from="TLON_M26_C" to="LOFF_M11_C"/>
   <trip id="vehicle_212" type="lorry" depart="21.2" from="TLON_M1_C" to="LOFF_M3_C"/>
   <trip id="vehicle_213" type="passenger" depart="21.3" from="TLON_M2_AC" to="LOFF_M4_AC"/>
   <trip id="vehicle_214" type="lorry" depart="21.4" from="TLON_M40_AC" to="LOFF_M1_AC"/>
   <trip id="vehicle_215" type="passenger" depart="21.5" from="TLON_M23_AC" to="LOFF_M2_AC"/>
   <trip id="vehicle_216" type="passenger" depart="21.6" from="TLON_M26_C" to="LOFF_M40_C"/>
   <trip id="vehicle_217" type="passenger" depart="21.7" from="TLON_M2_AC" to="LOFF_M23_AC"/>
   <trip id="vehicle_218" type="passenger" depart="21.8" from="TLON_M3_C" to="LOFF_M1_C"/>
   <trip id="vehicle_219" type="lorry" depart="21.9" from="TLON_M23_C" to="LOFF_M2_C"/>
   <trip id="vehicle_220" type="lorry" depart="22" from="TLON_M4_C" to="LOFF_M23_C"/>
   <trip id="vehicle_221" type="passenger" depart="22.1" from="TLON_M20_C" to="LOFF_M23_C"/>
   <trip id="vehicle_222" type="passenger" depart="22.2" from="TLON_M3_AC" to="LOFF_A1M_AC"/>
   <trip id="vehicle_223" type="passenger" depart="22.3" from="TLON_M2_AC" to="LOFF_M3_AC"/>
   <trip id="vehicle_224" type="passenger" depart="22.4" from="TLON_M1_AC" to="LOFF_M3_AC"/>
   <trip id="vehicle_225" type="passenger" depart="22.5" from="TLON_M23_AC" to="LOFF_M20_AC"/>
   <trip id="vehicle_226" type="passenger" depart="22.6" from="TLON_M1_C" to="LOFF_M23_C"/>
   <trip id="vehicle_227" type="passenger" depart="22.7" from="TLON_M11_C" to="LOFF_M1_C"/>
   <trip id="vehicle_228" type="passenger" depart="22.8" from="TLON_A1M_AC" to="LOFF_M3_AC"/>
   <trip id="vehicle_229" type="lorry" depart="22.9" from="TLON_M4_AC" to="LOFF_M11_AC"/>
   <trip id="vehicle_230" type="passenger" depart="23" from="TLON_M23_AC" to="LOFF_M1_AC"/>
   <trip id="vehicle_231" type="passenger" depart="23.1" from="TLON_M23_AC" to="LOFF_M26_AC"/>
   <trip id="vehicle_232" type="lorry" depart="23.2" from="TLON_M3_AC" to="LOFF_M4_AC"/>
   <trip id="vehicle_233" type="passenger" depart="23.3" from="TLON_M40_C" to="LOFF_M11_C"/>
   <trip id="vehicle_234" type="lorry" depart="23.4" from="TLON_M23_AC" to="LOFF_M26_AC"/>
   <trip id="vehicle_235" type="passenger" depart="23.5" from="TLON_M20_C" to="LOFF_M4_C"/>
   <trip id="vehicle_236" type="passenger" depart="23.6" from="TLON_M26_AC" to="LOFF_M4_AC"/>
   <trip id="vehicle_237" type="passenger" depart="23.7" from="TLON_M4_AC" to="LOFF_M20_AC"/>
   <trip id="vehicle_238" type="passenger" depart="23.8" from="TLON_M23_AC" to="LOFF_M40_AC"/>
   <trip id="vehicle_239" type="passenger" depart="23.9" from="TLON_M1_C" to="LOFF_M11_C"/>
   <trip id="vehicle_240" type="passenger" depart="24" from="TLON_M3_C" to="LOFF_M11_C"/>
   <trip id="vehicle_241" type="passenger" depart="24.1" from="TLON_M4_C" to="LOFF_M2_C"/>
   <trip id="vehicle_242" type="passenger" depart="24.2" from="TLON_M4_AC" to="LOFF_M1_AC"/>
   <trip id="vehicle_243" type="passenger" depart="24.3" from="TLON_M1_C" to="LOFF_M26_C"/>
   <trip id="vehicle_244" type="passenger" depart="24.4" from="TLON_M4_C" to="LOFF_M2_C"/>
   <trip id="vehicle_245" type="passenger" depart="24.5" from="TLON_M20_C" to="LOFF_M3_C"/>
   <trip id="vehicle_246" type="passenger" depart="24.6" from="TLON_M3_AC" to="LOFF_M2_AC"/>
   <trip id="vehicle_247" type="passenger" depart="24.7" from="TLON_M40_C" to="LOFF_M23_C"/>
   <trip id="vehicle_248" type="passenger" depart="24.8" from="TLON_M40_AC" to="LOFF_M20_AC"/>
   <trip id="vehicle_249" type="lorry" depart="24.9" from="TLON_M4_C" to="LOFF_M3_C"/>
   <trip id="vehicle_250" type="passenger" depart="25" from="TLON_M1_C" to="LOFF_M2_C"/>
   <trip id="vehicle_251" type="passenger" depart="25.1" from="TLON_M4_C" to="LOFF_M26_C"/>
   <trip id="vehicle_252" type="lorry" depart="25.2" from="TLON_M1_AC" to="LOFF_M3_AC"/>
   <trip id="vehicle_253" type="lorry" depart="25.3" from="TLON_M20_C" to="LOFF_M26_C"/>
   <trip id="vehicle_254" type="lorry" depart="25.4" from="TLON_M4_C" to="LOFF_M40_C"/>
   <trip id="vehicle_255" type="passenger" depart="25.5" from="TLON_M23_C" to="LOFF_M26_C"/>
   <trip id="vehicle_256" type="passenger" depart="25.6" from="TLON_M23_AC" to="LOFF_M3_AC"/>
   <trip id="vehicle_257" type="passenger" depart="25.7" from="TLON_M4_AC" to="LOFF_M2_AC"/>
   <trip id="vehicle_258" type="lorry" depart="25.8" from="TLON_M20_AC" to="LOFF_M26_AC"/>
   <trip id="vehicle_259" type="passenger" depart="25.9" from="TLON_M3_AC" to="LOFF_M11_AC"/>
   <trip id="vehicle_260" type="lorry" depart="26" from="TLON_M3_AC" to="LOFF_M20_AC"/>
   <trip id="vehicle_261" type="passenger" depart="26.1" from="TLON_M4_C" to="LOFF_M40_C"/>
   <trip id="vehicle_262" type="passenger" depart="26.2" from="TLON_M2_AC" to="LOFF_M40_AC"/>
   <trip id="vehicle_263" type="passenger" depart="26.3" from="TLON_M26_AC" to="LOFF_M2_AC"/>
   <trip id="vehicle_264" type="passenger" depart="26.4" from="TLON_M20_C" to="LOFF_M1_C"/>
   <trip id="vehicle_265" type="passenger" depart="26.5" from="TLON_M1_C" to="LOFF_A1M_C"/>
   <trip id="vehicle_266" type="lorry" depart="26.6" from="TLON_M11_AC" to="LOFF_M3_AC"/>
   <trip id="vehicle_267" type="passenger" depart="26.7" from="TLON_M4_C" to="LOFF_A1M_C"/>
   <trip id="vehicle_268" type="lorry" depart="26.8" from="TLON_M11_C" to="LOFF_M1_C"/>
   <trip id="vehicle_269" type="passenger" depart="26.9" from="TLON_M3_AC" to="LOFF_A1M_AC"/>
   <trip id="vehicle_270" type="lorry" depart="27" from="TLON_A1M_AC" to="LOFF_M40_AC"/>
   <trip id="vehicle_271" type="passenger" depart="27.1" from="TLON_M4_C" to="LOFF_M23_C"/>
   <trip id="vehicle_272" type="lorry" depart="27.2" from="TLON_M11_AC" to="LOFF_M26_AC"/>
   <trip id="vehicle_273" type="passenger" depart="27.3" from="TLON_M20_C" to="LOFF_M2_C"/>
   <trip id="vehicle_274" type="passenger" depart="27.4" from="TLON_M4_AC" to="LOFF_M3_AC"/>
   <trip id="vehicle_275" type="passenger" depart="27.5" from="TLON_M11_C" to="LOFF_A1M_C"/>
   <trip id="vehicle_276" type="passenger" depart="27.6" from="TLON_A1M_AC" to="LOFF_M2_AC"/>
   <trip id="vehicle_277" type="lorry" depart="27.7" from="TLON_M26_C" to="LOFF_M40_C"/>
   <trip id="vehicle_278" type="lorry" depart="27.8" from="TLON_M23_AC" to="LOFF_M1_AC"/>
   <trip id="vehicle_279" type="passenger" depart="27.9" from="TLON_M4_C" to="LOFF_M40_C"/>
   <trip id="vehicle_280" type="passenger" depart="28" from="TLON_M40_AC" to="LOFF_M1_AC"/>
   <trip id="vehicle_281" type="lorry" depart="28.1" from="TLON_M2_C" to="LOFF_M1_C"/>
   <trip id="vehicle_282" type="lorry" depart="28.2" from="TLON_M23_AC" to="LOFF_M1_AC"/>
   <trip id="vehicle_283" type="passenger" depart="28.3" from="TLON_M23_C" to="LOFF_M20_C"/>
   <trip id="vehicle_284" type="passenger" depart="28.4" from="TLON_M23_C" to="LOFF_A1M_C"/>
   <trip id="vehicle_285" type="passenger" depart="28.5" from="TLON_M26_C" to="LOFF_A1M_C"/>
   <trip id="vehicle_286" type="motorcycle" depart="28.6" from="TLON_M20_AC" to="LOFF_M3_AC"/>
   <trip id="vehicle_287" type="passenger" depart="28.7" from="TLON_A1M_AC" to="LOFF_M40_AC"/>
   <trip id="vehicle_288" type="passenger" depart="28.8" from="TLON_M11_AC" to="LOFF_A1M_AC"/>
   <trip id="vehicle_289" type="lorry" depart="28.9" from="TLON_M11_AC" to="LOFF_M26_AC"/>
   <trip id="vehicle_290" type="passenger" depart="29" from="TLON_M1_C" to="LOFF_M26_C"/>
   <trip id="vehicle_291" type="passenger" depart="29.1" from="TLON_M23_C" to="LOFF_M26_C"/>
   <trip id="vehicle_292" type="passenger" depart="29.2" from="TLON_A1M_C" to="LOFF_M11_C"/>
   <trip id="vehicle_293" type="passenger" depart="29.3" from="TLON_M20_C" to="LOFF_M40_C"/>
   <trip id="vehicle_294" type="passenger" depart="29.4" from="TLON_M23_C" to="LOFF_M40_C"/>
   <trip id="vehicle_295" type="passenger" depart="29.5" from="TLON_M40_AC" to="LOFF_M11_AC"/>
   <trip id="vehicle_296" type="passenger" depart="29.6" from="TLON_M26_AC" to="LOFF_M23_AC"/>
   <trip id="vehicle_297" type="lorry" depart="29.7" from="TLON_M2_C" to="LOFF_M11_C"/>
   <trip id="vehicle_298" type="passenger" depart="29.8" from="TLON_M1_C" to="LOFF_M20_C"/>
   <trip id="vehicle_299" type="passenger" depart="29.9" from="TLON_M1_C" to="LOFF_M23_C"/>
   <trip id="vehicle_300" type="passenger" depart="30" from="TLON_M4_C" to="LOFF_M1_C"/>
   <trip id="vehicle_301" type="passenger" depart="30.1" from="TLON_M3_AC" to="LOFF_M1_AC"/>
   <trip id="vehicle_302" type="passenger" depart="30.2" from="TLON_M40_C" to="LOFF_M26_C"/>
   <trip id="vehicle_303" type="passenger" depart="30.3" from="TLON_M26_AC" to="LOFF_A1M_AC"/>